*Heading
** Job name: Job-1-SemiconductorPackageGlobal Model name: Model-1
** Generated by: Abaqus/CAE Learning Edition 2025
*Preprint, echo=NO, model=NO, history=NO, contact=NO
**
** PARTS
**
*Part, name=Global
*Node
      1,          10.,          10.,          0.5
      2,          10.,           0.,          0.5
      3,          10.,           0.,           0.
      4,          10.,          10.,           0.
      5,           0.,           0.,          0.5
      6,           0.,           0.,           0.
      7,           0.,          10.,           0.
      8,           0.,          10.,          0.5
      9,          10.,          10.,           1.
     10,          10.,           0.,           1.
     11,           0.,          10.,           1.
     12,           0.,           0.,           1.
     13,          10.,           9.,          0.5
     14,          10.,           8.,          0.5
     15,          10.,           7.,          0.5
     16,          10.,           6.,          0.5
     17,          10.,           5.,          0.5
     18,          10.,           4.,          0.5
     19,          10.,           3.,          0.5
     20,          10.,           2.,          0.5
** ... 343 like lines cut
*Element, type=C3D8R
  1,  66, 121, 202,  49,   1,  13,  30,   4
  2, 121, 122, 203, 202,  13,  14,  29,  30
  3, 122, 123, 204, 203,  14,  15,  28,  29
  4, 123, 124, 205, 204,  15,  16,  27,  28
  5, 124, 125, 206, 205,  16,  17,  26,  27
  6, 125, 126, 207, 206,  17,  18,  25,  26
  7, 126, 127, 208, 207,  18,  19,  24,  25
  8, 127, 128, 209, 208,  19,  20,  23,  24
  9, 128, 129, 210, 209,  20,  21,  22,  23
 10, 129,  76,  75, 210,  21,   2,   3,  22
 11,  65, 130, 211,  50,  66, 121, 202,  49
 12, 130, 131, 212, 211, 121, 122, 203, 202
 13, 131, 132, 213, 212, 122, 123, 204, 203
 14, 132, 133, 214, 213, 123, 124, 205, 204
 15, 133, 134, 215, 214, 124, 125, 206, 205
 16, 134, 135, 216, 215, 125, 126, 207, 206
 17, 135, 136, 217, 216, 126, 127, 208, 207
 18, 136, 137, 218, 217, 127, 128, 209, 208
 19, 137, 138, 219, 218, 128, 129, 210, 209
 20, 138,  77,  74, 219, 129,  76,  75, 210
** ... 180 like lines cut
*Nset, nset=Set-1
   1,   2,   5,   8,   9,  10,  11,  12,  13,  14,  15,  16,  17,  18,  19,  20
  21,  31,  32,  33,  34,  35,  36,  37,  38,  39,  58,  59,  60,  61,  62,  63
  64,  65,  66,  76,  77,  78,  79,  80,  81,  82,  83,  84,  85,  86,  87,  88
  89,  90,  91,  92,  93,  94,  95,  96,  97,  98,  99, 100, 101, 102, 103, 104
 105, 106, 107, 108, 109, 110, 111, 112, 113, 114, 115, 116, 117, 118, 119, 120
 121, 122, 123, 124, 125, 126, 127, 128, 129, 130, 131, 132, 133, 134, 135, 136
 137, 138, 139, 140, 141, 142, 143, 144, 145, 146, 147, 148, 149, 150, 151, 152
 153, 154, 155, 156, 157, 158, 159, 160, 161, 162, 163, 164, 165, 166, 167, 168
 169, 170, 171, 172, 173, 174, 175, 176, 177, 178, 179, 180, 181, 182, 183, 184
 185, 186, 187, 188, 189, 190, 191, 192, 193, 194, 195, 196, 197, 198, 199, 200
 201, 283, 284, 285, 286, 287, 288, 289, 290, 291, 292, 293, 294, 295, 296, 297
 298, 299, 300, 301, 302, 303, 304, 305, 306, 307, 308, 309, 310, 311, 312, 313
 314, 315, 316, 317, 318, 319, 320, 321, 322, 323, 324, 325, 326, 327, 328, 329
 330, 331, 332, 333, 334, 335, 336, 337, 338, 339, 340, 341, 342, 343, 344, 345
 346, 347, 348, 349, 350, 351, 352, 353, 354, 355, 356, 357, 358, 359, 360, 361
 362, 363
*Elset, elset=Set-1, generate
 101,  200,    1
*Nset, nset=Set-2
   1,   2,   3,   4,   5,   6,   7,   8,  13,  14,  15,  16,  17,  18,  19,  20
  21,  22,  23,  24,  25,  26,  27,  28,  29,  30,  31,  32,  33,  34,  35,  36
  37,  38,  39,  40,  41,  42,  43,  44,  45,  46,  47,  48,  49,  50,  51,  52
  53,  54,  55,  56,  57,  58,  59,  60,  61,  62,  63,  64,  65,  66,  67,  68
  69,  70,  71,  72,  73,  74,  75,  76,  77,  78,  79,  80,  81,  82,  83,  84
 121, 122, 123, 124, 125, 126, 127, 128, 129, 130, 131, 132, 133, 134, 135, 136
 137, 138, 139, 140, 141, 142, 143, 144, 145, 146, 147, 148, 149, 150, 151, 152
 153, 154, 155, 156, 157, 158, 159, 160, 161, 162, 163, 164, 165, 166, 167, 168
 169, 170, 171, 172, 173, 174, 175, 176, 177, 178, 179, 180, 181, 182, 183, 184
 185, 186, 187, 188, 189, 190, 191, 192, 193, 194, 195, 196, 197, 198, 199, 200
 201, 202, 203, 204, 205, 206, 207, 208, 209, 210, 211, 212, 213, 214, 215, 216
 217, 218, 219, 220, 221, 222, 223, 224, 225, 226, 227, 228, 229, 230, 231, 232
 233, 234, 235, 236, 237, 238, 239, 240, 241, 242, 243, 244, 245, 246, 247, 248
 249, 250, 251, 252, 253, 254, 255, 256, 257, 258, 259, 260, 261, 262, 263, 264
 265, 266, 267, 268, 269, 270, 271, 272, 273, 274, 275, 276, 277, 278, 279, 280
 281, 282
*Elset, elset=Set-2, generate
   1,  100,    1
** Section: dielectricsection
*Solid Section, elset=Set-2, material=dielectric
,
** Section: coresection
*Solid Section, elset=Set-1, material=Core
,
*End Part
**  
**
** ASSEMBLY
**
*Assembly, name=Assembly
**  
*Instance, name=Global-1, part=Global
*End Instance
**  
*Nset, nset=Set-1, instance=Global-1
 3,
*Nset, nset=Set-2, instance=Global-1
 4,
*Nset, nset=Set-3, instance=Global-1
 7,
*Nset, nset=Set-4, instance=Global-1, generate
   1,  363,    1
*Elset, elset=Set-4, instance=Global-1, generate
   1,  200,    1
*Nset, nset=Set-5, instance=Global-1, generate
   1,  363,    1
*Elset, elset=Set-5, instance=Global-1, generate
   1,  200,    1
*Nset, nset=Set-6, instance=Global-1, generate
   1,  363,    1
*Elset, elset=Set-6, instance=Global-1, generate
   1,  200,    1
*Nset, nset=Set-7, instance=Global-1, generate
   1,  363,    1
*Elset, elset=Set-7, instance=Global-1, generate
   1,  200,    1
*Nset, nset=Set-8, instance=Global-1, generate
   1,  363,    1
*Elset, elset=Set-8, instance=Global-1, generate
   1,  200,    1
*End Assembly
** 
** MATERIALS
** 
*Material, name=Core
*Elastic
70000., 0.22
*Expansion
 3.3e-06,
*Material, name=dielectric
*Elastic
5000., 0.3
*Expansion
 5e-05,
*Material, name=metal_via
*Elastic
110000., 0.34
*Expansion
 1.7e-05,
** 
** BOUNDARY CONDITIONS
** 
** Name: BC-1 Type: Displacement/Rotation
*Boundary
Set-1, 1, 1
Set-1, 2, 2
Set-1, 3, 3
** Name: BC-2 Type: Displacement/Rotation
*Boundary
Set-2, 2, 2
Set-2, 3, 3
** Name: BC-3 Type: Displacement/Rotation
*Boundary
Set-3, 1, 1
Set-3, 3, 3
** 
** PREDEFINED FIELDS
** 
** Name: Predefined Field-2   Type: Temperature
*Initial Conditions, type=TEMPERATURE
Set-5, 298.
** ----------------------------------------------------------------
** 
** STEP: ramptohot
** 
*Step, name=ramptohot, nlgeom=YES
*Static
1., 1., 1e-05, 1.
** 
** PREDEFINED FIELDS
** 
** Name: Predefined Field-2   Type: Temperature
*Temperature, op=NEW
** Name: Predefined Field-3   Type: Temperature
*Temperature, op=NEW
Set-6, 498.
** 
** OUTPUT REQUESTS
** 
*Restart, write, frequency=0
** 
** FIELD OUTPUT: F-Output-1
** 
*Output, field, variable=PRESELECT
** 
** HISTORY OUTPUT: H-Output-1
** 
*Output, history, variable=PRESELECT
*End Step
** ----------------------------------------------------------------
** 
** STEP: cooltocold
** 
*Step, name=cooltocold, nlgeom=YES
*Static
1., 1., 1e-05, 1.
** 
** PREDEFINED FIELDS
** 
** Name: Predefined Field-3   Type: Temperature
*Temperature, op=NEW
** Name: Predefined Field-4   Type: Temperature
*Temperature, op=NEW
Set-7, 200.
** 
** OUTPUT REQUESTS
** 
*Restart, write, frequency=0
** 
** FIELD OUTPUT: F-Output-1
** 
*Output, field, variable=PRESELECT
** 
** HISTORY OUTPUT: H-Output-1
** 
*Output, history, variable=PRESELECT
*End Step
** ----------------------------------------------------------------
** 
** STEP: backtoroom
** 
*Step, name=backtoroom, nlgeom=YES
*Static
1., 1., 1e-05, 1.
** 
** PREDEFINED FIELDS
** 
** Name: Predefined Field-4   Type: Temperature
*Temperature, op=NEW
** Name: Predefined Field-5   Type: Temperature
*Temperature, op=NEW
Set-8, 298.
** 
** OUTPUT REQUESTS
** 
*Restart, write, frequency=0
** 
** FIELD OUTPUT: F-Output-1
** 
*Output, field, variable=PRESELECT
** 
** HISTORY OUTPUT: H-Output-1
** 
*Output, history, variable=PRESELECT
*End Step
