*Heading
** Job name: Job-2-local Model name: Model-1-local
** Generated by: Abaqus/CAE Learning Edition 2025
*Preprint, echo=NO, model=NO, history=NO, contact=NO
**
** PARTS
**
*Part, name=local
*Node
      1,   1.63867509,   1.29198742,          0.5
      2,   1.63867509,   1.29198742,           1.
      3,           2.,           2.,          0.5
      4,           1.,           2.,          0.5
      5,           2.,           1.,          0.5
      6,           1.,           1.,          0.5
      7,           2.,           1.,           0.
      8,           1.,           1.,           0.
      9,           1.,           2.,           0.
     10,           2.,           2.,           0.
     11,           1.,           2.,           1.
     12,           1.,           1.,           1.
     13,           2.,           1.,           1.
     14,           2.,           2.,           1.
     15,   1.73431683,   1.41284728,          0.5
     16,   1.74199402,   1.56276047,          0.5
     17,   1.65303326,    1.6976887,          0.5
     18,   1.50531507,   1.74994349,          0.5
     19,   1.36324453,   1.70927954,          0.5
     20,   1.27620518,   1.61142647,          0.5
** ... 130 like lines cut
*Element, type=C3D8R
 1, 88, 89, 94, 93, 76, 77, 82, 81
 2, 89, 87, 90, 94, 77, 75, 78, 82
 3, 90, 25, 26, 94, 78, 22, 21, 82
 4, 94, 26, 27, 93, 82, 21, 20, 81
 5, 27, 28, 88, 93, 20, 19, 76, 81
 6, 24, 25, 90, 95, 23, 22, 78, 83
 7, 90, 87, 91, 95, 78, 75, 79, 83
 8, 91,  2, 24, 95, 79,  1, 23, 83
 9, 29, 30, 97, 96, 18, 17, 85, 84
10, 30, 31, 92, 97, 17, 16, 80, 85
11, 92, 87, 89, 97, 80, 75, 77, 85
12, 97, 89, 88, 96, 85, 77, 76, 84
13, 88, 28, 29, 96, 76, 19, 18, 84
14, 91, 87, 92, 98, 79, 75, 80, 86
15, 92, 31, 32, 98, 80, 16, 15, 86
16, 32,  2, 91, 98, 15,  1, 79, 86
17,  76,  77,  82,  81, 120, 121, 126, 125
18,  77,  75,  78,  82, 121, 119, 122, 126
19,  78,  22,  21,  82, 122, 117, 116, 126
20,  82,  21,  20,  81, 126, 116, 115, 125
** ... 60 like lines cut
*Nset, nset=Set-1
   1,   2,   3,   4,   5,   6,  11,  12,  13,  14,  15,  16,  17,  18,  19,  20
  21,  22,  23,  24,  25,  26,  27,  28,  29,  30,  31,  32,  33,  34,  35,  36
  37,  38,  39,  40,  41,  42,  43,  44,  45,  46,  61,  62,  63,  64,  65,  66
  67,  68,  69,  70,  71,  72,  73,  74,  99, 100, 101, 102, 103, 104, 105, 106
 107, 108, 141, 142, 143, 144, 145, 146, 147, 148, 149, 150
*Elset, elset=Set-1, generate
 57,  80,   1
*Nset, nset=Set-2
   1,   3,   4,   5,   6,   7,   8,   9,  10,  15,  16,  17,  18,  19,  20,  21
  22,  23,  33,  34,  35,  36,  37,  38,  39,  40,  41,  42,  43,  44,  45,  46
  47,  48,  49,  50,  51,  52,  53,  54,  55,  56,  57,  58,  59,  60,  75,  76
  77,  78,  79,  80,  81,  82,  83,  84,  85,  86,  99, 100, 101, 102, 103, 104
 105, 106, 107, 108, 109, 110, 111, 112, 113, 114, 115, 116, 117, 118, 119, 120
 121, 122, 123, 124, 125, 126, 127, 128, 129, 130, 131, 132, 133, 134, 135, 136
 137, 138, 139, 140
*Elset, elset=Set-2, generate
 17,  56,   1
*Nset, nset=Set-3
  1,  2, 15, 16, 17, 18, 19, 20, 21, 22, 23, 24, 25, 26, 27, 28
 29, 30, 31, 32, 75, 76, 77, 78, 79, 80, 81, 82, 83, 84, 85, 86
 87, 88, 89, 90, 91, 92, 93, 94, 95, 96, 97, 98
*Elset, elset=Set-3, generate
  1,  16,   1
** Section: viasection
*Solid Section, elset=Set-3, material=metal_via
,
** Section: dielectricsection
*Solid Section, elset=Set-2, material=dielectric
,
** Section: coresection
*Solid Section, elset=Set-1, material=Core
,
*End Part
**  
**
** ASSEMBLY
**
*Assembly, name=Assembly
**  
*Instance, name=local-1, part=local
*End Instance
**  
*Nset, nset=Set-10, instance=local-1, generate
 11,  14,   1
*Nset, nset=Set-11, instance=local-1, generate
   1,  150,    1
*Elset, elset=Set-11, instance=local-1, generate
  1,  80,   1
*Nset, nset=Set-12, instance=local-1, generate
   1,  150,    1
*Elset, elset=Set-12, instance=local-1, generate
  1,  80,   1
*Nset, nset=Set-13, instance=local-1, generate
   1,  150,    1
*Elset, elset=Set-13, instance=local-1, generate
  1,  80,   1
*Nset, nset=Set-14, instance=local-1, generate
   1,  150,    1
*Elset, elset=Set-14, instance=local-1, generate
  1,  80,   1
*Nset, nset=Set-15, instance=local-1, generate
   1,  150,    1
*Elset, elset=Set-15, instance=local-1, generate
  1,  80,   1
*Submodel, type=NODE, exteriorTolerance=0.05
Set-11, 
*End Assembly
** 
** MATERIALS
** 
*Material, name=Core
*Elastic
70000., 0.22
*Expansion
 3.3e-06,
*Material, name=dielectric
*Elastic
5000., 0.3
*Expansion
 5e-05,
*Material, name=metal_via
*Elastic
110000., 0.34
*Expansion
 1.7e-05,
** 
** PREDEFINED FIELDS
** 
** Name: Predefined Field-1   Type: Temperature
*Initial Conditions, type=TEMPERATURE
Set-12, 298.
** ----------------------------------------------------------------
** 
** STEP: ramptohot
** 
*Step, name=ramptohot, nlgeom=YES
*Static
1., 1., 1e-05, 1.
** 
** BOUNDARY CONDITIONS
** 
** Name: BC-1 Type: Submodel
*Boundary, submodel, step=1
Set-11, 6, 6
** 
** PREDEFINED FIELDS
** 
** Name: Predefined Field-1   Type: Temperature
*Temperature, op=NEW
** Name: Predefined Field-2   Type: Temperature
*Temperature, op=NEW
Set-13, 498.
** 
** OUTPUT REQUESTS
** 
*Restart, write, frequency=0
** 
** FIELD OUTPUT: F-Output-1
** 
*Output, field, variable=PRESELECT
** 
** HISTORY OUTPUT: H-Output-1
** 
*Output, history, variable=PRESELECT
*End Step
** ----------------------------------------------------------------
** 
** STEP: cooltocold
** 
*Step, name=cooltocold, nlgeom=YES
*Static
1., 1., 1e-05, 1.
** 
** PREDEFINED FIELDS
** 
** Name: Predefined Field-2   Type: Temperature
*Temperature, op=NEW
** Name: Predefined Field-3   Type: Temperature
*Temperature, op=NEW
Set-14, 200.
** 
** OUTPUT REQUESTS
** 
*Restart, write, frequency=0
** 
** FIELD OUTPUT: F-Output-1
** 
*Output, field, variable=PRESELECT
** 
** HISTORY OUTPUT: H-Output-1
** 
*Output, history, variable=PRESELECT
*End Step
** ----------------------------------------------------------------
** 
** STEP: backtoroom
** 
*Step, name=backtoroom, nlgeom=YES
*Static
1., 1., 1e-05, 1.
** 
** PREDEFINED FIELDS
** 
** Name: Predefined Field-3   Type: Temperature
*Temperature, op=NEW
** Name: Predefined Field-4   Type: Temperature
*Temperature, op=NEW
Set-15, 298.
** 
** OUTPUT REQUESTS
** 
*Restart, write, frequency=0
** 
** FIELD OUTPUT: F-Output-1
** 
*Output, field, variable=PRESELECT
** 
** HISTORY OUTPUT: H-Output-1
** 
*Output, history, variable=PRESELECT
*End Step
